  
       XFOIL         Version 6.99
  
 Calculated polar for: blended_1210_2310                               
  
 1 1 Reynolds number fixed          Mach number fixed         
  
 xtrf =   1.000 (top)        1.000 (bottom)  
 Mach =   0.000     Re =     0.152 e 6     Ncrit =   9.000
  
   alpha    CL        CD       CDp       CM     Top_Xtr  Bot_Xtr
  ------ -------- --------- --------- -------- -------- --------
   0.000   0.2350   0.01087   0.00514  -0.0495   0.9288   1.0000
   0.100   0.2499   0.01078   0.00503  -0.0501   0.9220   1.0000
   0.200   0.2632   0.01070   0.00493  -0.0503   0.9144   1.0000
   0.300   0.2762   0.01061   0.00482  -0.0505   0.9068   1.0000
   0.400   0.2877   0.01055   0.00473  -0.0504   0.8981   1.0000
   0.500   0.2988   0.01048   0.00464  -0.0501   0.8894   1.0000
   0.600   0.3095   0.01042   0.00455  -0.0498   0.8806   1.0000
   0.700   0.3199   0.01036   0.00447  -0.0494   0.8715   1.0000
   0.800   0.3298   0.01031   0.00439  -0.0489   0.8620   1.0000
   0.900   0.3395   0.01028   0.00433  -0.0484   0.8521   1.0000
   1.000   0.3490   0.01025   0.00426  -0.0479   0.8421   1.0000
   1.100   0.3585   0.01023   0.00421  -0.0473   0.8318   1.0000
   1.200   0.3678   0.01022   0.00416  -0.0467   0.8210   1.0000
   1.300   0.3772   0.01022   0.00412  -0.0461   0.8102   1.0000
   1.400   0.3866   0.01022   0.00408  -0.0456   0.7993   1.0000
   1.500   0.3960   0.01024   0.00404  -0.0450   0.7883   1.0000
   1.600   0.4054   0.01026   0.00401  -0.0445   0.7772   1.0000
   1.700   0.4147   0.01029   0.00400  -0.0439   0.7655   1.0000
   1.800   0.4241   0.01032   0.00398  -0.0434   0.7540   1.0000
   1.900   0.4335   0.01037   0.00397  -0.0429   0.7426   1.0000
   2.000   0.4429   0.01042   0.00397  -0.0424   0.7305   1.0000
   2.100   0.4523   0.01047   0.00397  -0.0419   0.7188   1.0000
   2.200   0.4616   0.01054   0.00398  -0.0414   0.7070   1.0000
   2.300   0.4710   0.01061   0.00399  -0.0409   0.6950   1.0000
   2.400   0.4804   0.01068   0.00401  -0.0404   0.6835   1.0000
   2.500   0.4897   0.01077   0.00404  -0.0399   0.6716   1.0000
   2.600   0.4991   0.01085   0.00407  -0.0395   0.6600   1.0000
   2.700   0.5085   0.01094   0.00410  -0.0390   0.6487   1.0000
   2.800   0.5179   0.01104   0.00414  -0.0386   0.6374   1.0000
   2.900   0.5273   0.01114   0.00419  -0.0381   0.6262   1.0000
   3.000   0.5367   0.01124   0.00424  -0.0377   0.6153   1.0000
   3.100   0.5461   0.01135   0.00429  -0.0373   0.6047   1.0000
   3.200   0.5556   0.01146   0.00435  -0.0369   0.5943   1.0000
   3.300   0.5650   0.01158   0.00442  -0.0365   0.5842   1.0000
   3.400   0.5745   0.01169   0.00449  -0.0361   0.5742   1.0000
   3.500   0.5840   0.01181   0.00456  -0.0358   0.5645   1.0000
   3.600   0.5936   0.01193   0.00464  -0.0354   0.5549   1.0000
   3.700   0.6031   0.01205   0.00472  -0.0350   0.5455   1.0000
   3.800   0.6127   0.01217   0.00481  -0.0347   0.5364   1.0000
   3.900   0.6223   0.01230   0.00490  -0.0343   0.5276   1.0000
   4.000   0.6318   0.01242   0.00498  -0.0340   0.5190   1.0000
   4.100   0.6414   0.01255   0.00508  -0.0336   0.5101   1.0000
   4.200   0.6511   0.01267   0.00518  -0.0333   0.5015   1.0000
   4.300   0.6607   0.01280   0.00528  -0.0330   0.4932   1.0000
   4.400   0.6703   0.01293   0.00538  -0.0327   0.4849   1.0000
   4.500   0.6799   0.01306   0.00549  -0.0323   0.4763   1.0000
   4.600   0.6895   0.01319   0.00559  -0.0320   0.4680   1.0000
   4.700   0.6991   0.01332   0.00569  -0.0317   0.4599   1.0000
   4.800   0.7086   0.01344   0.00581  -0.0314   0.4514   1.0000
   4.900   0.7182   0.01357   0.00591  -0.0310   0.4431   1.0000
   5.000   0.7277   0.01370   0.00602  -0.0307   0.4350   1.0000
   5.100   0.7373   0.01382   0.00614  -0.0304   0.4264   1.0000
   5.200   0.7468   0.01395   0.00625  -0.0301   0.4181   1.0000
   5.300   0.7563   0.01409   0.00636  -0.0297   0.4101   1.0000
   5.400   0.7657   0.01421   0.00649  -0.0294   0.4015   1.0000
   5.500   0.7752   0.01434   0.00661  -0.0291   0.3931   1.0000
   5.600   0.7846   0.01447   0.00672  -0.0288   0.3849   1.0000
   5.700   0.7940   0.01459   0.00685  -0.0284   0.3764   1.0000
   5.800   0.8034   0.01472   0.00698  -0.0281   0.3678   1.0000
   5.900   0.8128   0.01485   0.00711  -0.0278   0.3591   1.0000
   6.000   0.8221   0.01498   0.00723  -0.0275   0.3505   1.0000
   6.100   0.8313   0.01511   0.00736  -0.0271   0.3416   1.0000
   6.200   0.8406   0.01524   0.00750  -0.0268   0.3322   1.0000
   6.300   0.8498   0.01537   0.00763  -0.0264   0.3226   1.0000
   6.400   0.8589   0.01550   0.00777  -0.0261   0.3126   1.0000
   6.500   0.8679   0.01564   0.00790  -0.0257   0.3022   1.0000
   6.600   0.8770   0.01577   0.00804  -0.0254   0.2907   1.0000
   6.700   0.8859   0.01592   0.00819  -0.0250   0.2788   1.0000
   6.800   0.8947   0.01608   0.00834  -0.0246   0.2657   1.0000
   6.900   0.9032   0.01627   0.00850  -0.0242   0.2514   1.0000
   7.000   0.9115   0.01649   0.00868  -0.0238   0.2357   1.0000
   7.100   0.9196   0.01675   0.00889  -0.0234   0.2176   1.0000
   7.200   0.9272   0.01708   0.00913  -0.0229   0.1974   1.0000
   7.300   0.9342   0.01749   0.00942  -0.0223   0.1759   1.0000
   7.400   0.9408   0.01798   0.00978  -0.0217   0.1562   1.0000
   7.500   0.9471   0.01852   0.01019  -0.0211   0.1396   1.0000
   7.600   0.9534   0.01906   0.01062  -0.0205   0.1266   1.0000
   7.700   0.9598   0.01960   0.01107  -0.0198   0.1165   1.0000
   7.800   0.9662   0.02012   0.01152  -0.0192   0.1085   1.0000
   7.900   0.9731   0.02062   0.01198  -0.0186   0.1014   1.0000
   8.000   0.9796   0.02113   0.01243  -0.0180   0.0960   1.0000
   8.100   0.9865   0.02162   0.01289  -0.0174   0.0910   1.0000
   8.200   0.9934   0.02211   0.01336  -0.0168   0.0867   1.0000
   8.300   1.0003   0.02261   0.01382  -0.0162   0.0830   1.0000
   8.400   1.0072   0.02311   0.01429  -0.0157   0.0797   1.0000
   8.500   1.0146   0.02359   0.01478  -0.0152   0.0765   1.0000
   8.600   1.0218   0.02410   0.01529  -0.0146   0.0737   1.0000
   8.700   1.0290   0.02463   0.01576  -0.0141   0.0713   1.0000
   8.800   1.0366   0.02512   0.01628  -0.0136   0.0689   1.0000
   8.900   1.0442   0.02566   0.01682  -0.0132   0.0668   1.0000
   9.000   1.0519   0.02618   0.01730  -0.0128   0.0649   1.0000
   9.100   1.0597   0.02674   0.01790  -0.0123   0.0630   1.0000
   9.200   1.0678   0.02727   0.01840  -0.0119   0.0613   1.0000
   9.300   1.0758   0.02786   0.01903  -0.0115   0.0597   1.0000
   9.400   1.0840   0.02841   0.01958  -0.0111   0.0581   1.0000
   9.500   1.0925   0.02904   0.02019  -0.0108   0.0568   1.0000
   9.600   1.1004   0.02963   0.02086  -0.0104   0.0553   1.0000
   9.700   1.1097   0.03023   0.02138  -0.0103   0.0541   1.0000
   9.800   1.1171   0.03091   0.02219  -0.0098   0.0529   1.0000
   9.900   1.1254   0.03155   0.02286  -0.0094   0.0518   1.0000
  10.000   1.1355   0.03220   0.02341  -0.0094   0.0508   1.0000
